v2.0/src/applications/state_estimation/3bus.raw
0  100.000


      1, 3,    350.00,     100.0,     0.000,     0.000,   1,1.00000,   0.0000,'bus-1       ',230.0000,   2
      2, 2,    400.00,     250.0,     0.000,     0.000,   1,1.00000,   0.0000,'bus-2       ',230.0000,   2
      3, 2,    250.00,     100.0,     0.000,     0.000,   1,1.00000,   0.0000,'bus-3       ',230.0000,   2
0
     1,'1 ',   182.180,     0.000, 99990.000, -9999.000,1.00000,     0,   100.000,   0.00000,   1.00000,   0.00000,   0.00000,   1.00000,1,  100.0,     0.000,     0.000,	0.00000,	0.00000,	0.06080,	0.00000
     2,'1 ',   272.770,     0.000, 99990.000, -9999.000,1.02000,     0,   100.000,   0.00000,   1.00000,   0.00000,   0.00000,   1.00000,1,  100.0,     0.000,     0.000,	0.00000,	0.00000,	0.11980,	0.00000
     3,'1 ',   545.050,     0.000, 99990.000, -9999.000,1.02000,     0,   100.000,   0.00000,   1.00000,   0.00000,   0.00000,   1.00000,1,  100.0,     0.000,     0.000,	0.00000,	0.00000,	0.18130,	0.00000
0 / END OF GENERATOR DATA, BEGIN BRANCH DATA
      1,      2,'BL',  0.01000,  0.10000,  0.05000,   0.00,   0.00,   0.00,0.00000,  0.000, 0.00000, 0.00000,00.00000,00.00000, 1
      1,      3,'BL',  0.05000,  0.10000,  0.02500,   0.00,   0.00,   0.00,0.00000,  0.000, 0.00000, 0.00000,00.00000,00.00000, 1
      2,      3,'BL',  0.05000,  0.10000,  0.02500,   0.00,   0.00,   0.00,0.00000,  0.000, 0.00000, 0.00000,00.00000,00.00000, 1
0 / END OF BRANCH DATA, BEGIN TRANSFORMER ADJUSTMENT DATA
0 / END OF TRANSFORMER ADJUSTMENT DATA, BEGIN AREA DATA
0 / END OF AREA DATA, BEGIN TWO-TERMINAL DC DATA
0 / END OF TWO-TERMINAL DC DATA, BEGIN SWITCHED SHUNT DATA
0 / END OF SWITCHED SHUNT DATA, BEGIN IMPEDANCE CORRECTION DATA
0 / END OF IMPEDANCE CORRECTION DATA, BEGIN MULTI-TERMINAL DC DATA
0 / END OF MULTI-TERMINAL DC DATA, BEGIN MULTI-SECTION LINE DATA
0 / END OF MULTI-SECTION LINE DATA, BEGIN ZONE DATA
    2,' 1          '
0 / END OF ZONE DATA, BEGIN INTER-AREA TRANSFER DATA
0 / END OF INTER-AREA TRANSFER DATA, BEGIN OWNER DATA
    1,'OWNER_1     '
0 / END OF OWNER DATA, BEGIN FACTS DEVICE DATA

